iidm/iidm-xml-converter/src/test/resources/V1_2/multiple-extensions.xiidm
<?xml version="1.0" encoding="UTF-8"?>
<iidm:network xmlns:iidm="http://www.powsybl.org/schema/iidm/1_2" id="test" caseDate="2017-11-17T12:00:00.000+01:00" forecastDistance="0" sourceFormat="test">
    <iidm:substation id="S" country="FR">
        <iidm:voltageLevel id="VL" nominalV="20.0" lowVoltageLimit="15.0" highVoltageLimit="25.0" topologyKind="BUS_BREAKER">
            <iidm:busBreakerTopology>
                <iidm:bus id="BUS"/>
            </iidm:busBreakerTopology>
            <iidm:load id="LOAD" loadType="UNDEFINED" p0="0.0" q0="0.0" bus="BUS" connectableBus="BUS"/>
            <iidm:load id="LOAD2" loadType="UNDEFINED" p0="0.0" q0="0.0" bus="BUS" connectableBus="BUS"/>
        </iidm:voltageLevel>
    </iidm:substation>
</iidm:network>
